[General]
network = FifoNet
sim-time-limit = 100h
cpu-time-limit = 300s
#debug-on-errors = true
#record-eventlog = true

[Config Fifo1]
description = "low job arrival rate"
**.gen.sendIaTime = 0.01s #exponential(0.02s)
**.fifo.serviceTime = 0.0012s

#[Config Fifo2]
#description = "high job arrival rate"
#**.gen.sendIaTime = exponential(0.01s)
#**.fifo.serviceTime = 0.01s
